Version 4
SHEET 1 880 680
WIRE 176 32 64 32
WIRE 288 32 176 32
WIRE 240 48 112 48
WIRE 112 128 112 48
WIRE 112 128 64 128
WIRE 288 192 288 128
WIRE 352 192 288 192
WIRE 64 224 64 128
WIRE 288 224 288 192
WIRE 16 304 -144 304
WIRE 384 304 336 304
WIRE -144 320 -144 304
WIRE 192 320 64 320
WIRE 288 320 192 320
WIRE 384 320 384 304
WIRE 144 400 64 400
FLAG -224 224 0
FLAG 64 480 0
FLAG 192 416 0
FLAG 192 368 0
FLAG 288 272 0
FLAG 64 272 0
FLAG 176 32 VDD
IOPIN 176 32 In
FLAG 64 80 VDD
IOPIN 64 80 In
FLAG 288 80 VDD
IOPIN 288 80 In
FLAG -224 144 VDD
IOPIN -224 144 Out
FLAG -144 400 0
FLAG 384 400 0
FLAG 432 192 0
SYMBOL pmos4 112 128 R180
SYMATTR InstName M1
SYMATTR Value2 l=1um w=180nm
SYMBOL nmos4 16 224 R0
SYMATTR InstName M2
SYMATTR Value2 l=100nm w=120nm
SYMBOL pmos4 240 128 M180
SYMATTR InstName M3
SYMATTR Value2 l=1um w=180nm
SYMBOL nmos4 336 224 M0
SYMATTR InstName M4
SYMATTR Value2 l=100nm w=120nm
SYMBOL voltage -224 128 R0
WINDOW 123 0 0 Left 0
WINDOW 39 0 0 Left 0
SYMATTR InstName V1
SYMATTR Value 1.8
SYMBOL voltage 64 384 R0
WINDOW 123 0 0 Left 0
WINDOW 39 0 0 Left 0
SYMATTR InstName V2
SYMATTR Value 1.8
SYMBOL nmos4 144 320 R0
SYMATTR InstName M5
SYMATTR Value2 l=100nm w=120nm
SYMBOL voltage -144 304 R0
WINDOW 123 0 0 Left 0
WINDOW 39 0 0 Left 0
SYMATTR InstName V4
SYMATTR Value PULSE(0.275 1.8 0 0.001 0.001 0 0.002)
SYMBOL voltage 384 304 R0
WINDOW 123 0 0 Left 0
WINDOW 39 0 0 Left 0
SYMATTR InstName V6
SYMATTR Value 0
SYMBOL res 336 208 R270
WINDOW 0 32 56 VTop 2
WINDOW 3 0 56 VBottom 2
SYMATTR InstName R1
SYMATTR Value 10k
TEXT -296 504 Left 2 !.tran 0 0.001 0 0.000001
