Version 4
SHEET 1 904 680
WIRE 272 -96 192 -96
WIRE 640 -96 272 -96
WIRE 64 -48 48 -48
WIRE 240 -48 160 -48
WIRE 272 -32 272 -96
WIRE 192 -16 192 -96
WIRE 240 0 240 -48
WIRE 240 0 224 0
WIRE 160 16 112 16
WIRE 240 32 224 32
WIRE 608 48 576 48
WIRE 640 48 640 -96
WIRE 640 48 608 48
WIRE 848 48 640 48
WIRE 48 80 48 -48
WIRE 240 80 240 32
WIRE 272 80 272 48
WIRE 272 80 240 80
WIRE 608 80 608 48
WIRE 272 96 272 80
WIRE 352 96 304 96
WIRE 352 112 352 96
WIRE 848 128 848 48
WIRE 496 144 496 96
WIRE 464 176 432 176
WIRE 640 176 640 48
WIRE 640 176 528 176
WIRE 48 192 48 160
WIRE 304 192 304 96
WIRE 304 192 48 192
WIRE 400 192 352 192
WIRE 608 208 608 160
WIRE 608 208 560 208
WIRE 608 224 608 208
WIRE 400 240 400 192
WIRE 480 240 480 208
WIRE 480 240 400 240
WIRE 512 240 512 208
WIRE 560 240 560 208
WIRE 560 240 512 240
WIRE 48 304 48 256
WIRE 192 304 192 48
WIRE 192 304 48 304
WIRE 272 304 272 176
WIRE 272 304 192 304
WIRE 352 304 352 272
WIRE 352 304 272 304
WIRE 400 304 352 304
WIRE 432 304 432 176
WIRE 432 304 400 304
WIRE 608 304 608 288
WIRE 608 304 432 304
WIRE 848 304 848 208
WIRE 848 304 608 304
WIRE 400 320 400 304
FLAG 400 320 0
SYMBOL cap 32 192 R0
SYMATTR InstName C1
SYMATTR Value 400
SYMBOL pmos 576 96 M270
SYMATTR InstName M1
SYMBOL OpAmps\\OP747 560 176 M270
SYMATTR InstName U1
SYMBOL res 336 96 R0
SYMATTR InstName R1
SYMATTR Value 2360
SYMBOL res 336 176 R0
SYMATTR InstName R2
SYMATTR Value 1000
SYMBOL res 592 64 R0
SYMATTR InstName R3
SYMATTR Value 10000
SYMBOL References\\LT1389-1.25 608 256 R0
SYMATTR InstName U2
SYMBOL voltage 848 112 R0
WINDOW 123 0 0 Left 0
WINDOW 39 24 124 Left 2
SYMATTR InstName V1
SYMATTR Value 5
SYMBOL res 32 64 R0
SYMATTR InstName R4
SYMATTR Value 0.5
SYMBOL OpAmps\\OP747 192 -48 M0
SYMATTR InstName U3
SYMBOL pnp 64 16 R270
SYMATTR InstName Q1
SYMATTR Value 2N3906
SYMBOL res 256 -48 R0
SYMATTR InstName R5
SYMATTR Value 100
SYMBOL res 256 80 R0
SYMATTR InstName R6
SYMATTR Value 10000
TEXT 30 344 Left 2 !.tran 0 1500 0 0.01 startup
