Version 4
SHEET 1 880 680
WIRE 128 48 -16 48
WIRE 240 48 128 48
WIRE 384 48 240 48
WIRE 528 48 384 48
WIRE 720 48 624 48
WIRE 128 96 128 48
WIRE 240 96 240 48
WIRE -16 144 -16 48
WIRE 384 176 384 48
WIRE 720 176 720 48
WIRE 128 192 128 176
WIRE 352 192 128 192
WIRE 576 208 576 112
WIRE 576 208 416 208
WIRE 240 224 240 176
WIRE 352 224 240 224
WIRE 128 288 128 192
WIRE -16 416 -16 224
WIRE 128 416 128 368
WIRE 128 416 -16 416
WIRE 240 416 240 288
WIRE 240 416 128 416
WIRE 384 416 384 240
WIRE 384 416 240 416
WIRE 720 416 720 256
WIRE 720 416 384 416
FLAG 128 416 0
SYMBOL voltage -16 128 R0
WINDOW 123 0 0 Left 0
WINDOW 39 0 0 Left 0
SYMATTR InstName V1
SYMATTR Value SINE(2 2 0.1)
SYMBOL OpAmps\\LT1495 384 144 R0
SYMATTR InstName U1
SYMBOL res 112 80 R0
SYMATTR InstName R1
SYMATTR Value 1500
SYMATTR SpiceLine tol=0.1
SYMBOL res 112 272 R0
SYMATTR InstName R2
SYMATTR Value 1000
SYMATTR SpiceLine tol=1
SYMBOL res 224 80 R0
SYMATTR InstName R3
SYMATTR Value 2050000
SYMATTR SpiceLine tol=1
SYMBOL References\\LT1389-1.25 240 256 R0
SYMATTR InstName U2
SYMBOL res 704 160 R0
SYMATTR InstName R7
SYMATTR Value 1000000
SYMBOL pnp 528 112 R270
SYMATTR InstName Q1
TEXT -50 440 Left 2 !.tran 0 10 0 0.001
