Version 4
SHEET 1 880 680
WIRE -80 0 -224 0
WIRE 32 0 -80 0
WIRE 176 0 32 0
WIRE 272 0 176 0
WIRE 320 0 272 0
WIRE 464 0 416 0
WIRE 512 0 464 0
WIRE 688 0 608 0
WIRE -80 48 -80 0
WIRE 32 48 32 0
WIRE -224 96 -224 0
WIRE 688 96 688 0
WIRE 176 128 176 0
WIRE 272 128 272 0
WIRE 416 128 272 128
WIRE -80 144 -80 128
WIRE 144 144 -80 144
WIRE 560 144 560 64
WIRE 368 160 368 64
WIRE 368 160 208 160
WIRE 32 176 32 128
WIRE 144 176 32 176
WIRE 272 176 272 128
WIRE 528 176 272 176
WIRE 624 176 592 176
WIRE 416 224 416 208
WIRE 544 224 544 208
WIRE 544 224 416 224
WIRE -80 240 -80 144
WIRE 416 240 416 224
WIRE 576 272 576 208
WIRE 688 272 688 176
WIRE 688 272 576 272
WIRE -224 368 -224 176
WIRE -80 368 -80 320
WIRE -80 368 -224 368
WIRE 32 368 32 240
WIRE 32 368 -80 368
WIRE 176 368 176 192
WIRE 176 368 32 368
WIRE 416 368 416 320
WIRE 416 368 176 368
WIRE 624 368 624 176
WIRE 624 368 416 368
WIRE 688 368 688 352
WIRE 688 368 624 368
FLAG -80 368 0
FLAG -224 0 VCC
FLAG 464 0 UV_OUT
FLAG 688 0 OC_OUT
SYMBOL voltage -224 80 R0
WINDOW 123 0 0 Left 0
WINDOW 39 0 0 Left 0
SYMATTR InstName V1
SYMATTR Value 4.2
SYMBOL res -96 32 R0
SYMATTR InstName R1
SYMATTR Value 1500
SYMATTR SpiceLine tol=0.1
SYMBOL res -96 224 R0
SYMATTR InstName R2
SYMATTR Value 1000
SYMATTR SpiceLine tol=1
SYMBOL res 16 32 R0
SYMATTR InstName R3
SYMATTR Value 2050000
SYMATTR SpiceLine tol=1
SYMBOL References\\LT1389-1.25 32 208 R0
SYMATTR InstName U2
SYMBOL pnp 320 64 R270
SYMATTR InstName Q1
SYMBOL res 672 256 R0
SYMATTR InstName R4
SYMATTR Value 0.07
SYMBOL pnp 512 64 R270
SYMATTR InstName Q2
SYMBOL res 400 112 R0
SYMATTR InstName R5
SYMATTR Value 20000
SYMBOL res 672 80 R0
SYMATTR InstName R7
SYMATTR Value 10
SYMBOL OpAmps\\OP747 176 96 R0
SYMATTR InstName U1
SYMBOL OpAmps\\OP747 496 176 R270
SYMATTR InstName U3
SYMBOL res 400 224 R0
SYMATTR InstName R6
SYMATTR Value 10000
TEXT -258 392 Left 2 !.tran 0 10 0 0.001
